[TITLE]											
											
											
[JUNCTIONS]											
;ID              	Elev        	Demand      	Pattern         								
32344	86.05	35.364	CommercialIndust	;							
10289	100.77	27.184	CommercialIndust	;							
43816	114.84	22.623	CommercialIndust	;							
54798	87.83	20.667	CommercialIndust	;							
32706	85.27	18.039	CommercialIndust	;							
54458	88.65	17.713	CommercialIndust	;							
54429	78.74	7.144	CommercialIndust	;							
54585	92.27	6.225	CommercialIndust	;							
33056	76.35	3.738	Residential     	;							
21654	80.24	3.627	Residential     	;							
21773	85.1	3.589	Residential     	;							
33103	82.25	3.546	Residential     	;							
32941	84.61	3.43	Residential     	;							
21932	83.95	3.27	Residential     	;							
33190	76.52	3.244	Residential     	;							
21817	86.58	2.862	Residential     	;							
21831	84.98	2.854	Residential     	;							
10645	98.58	2.83	Residential     	;							
21752	86.18	2.826	Residential     	;							
21892	84.83	2.793	Residential     	;							
32103	80.33	2.791	Residential     	;							
21950	84.69	2.737	Residential     	;							
33029	83.2	2.718	Residential     	;							
32895	83.75	2.716	Residential     	;							
32955	85.27	2.688	Residential     	;							
33276	77.32	2.553	Residential     	;							
33094	84.36	2.531	Residential     	;							
21871	86.27	2.509	Residential     	;							
10623	98.71	2.382	Residential     	;							
33290	84.59	2.3	Residential     	;							
21500	75.1	2.298	Residential     	;							
11305	86.83	2.295	Residential     	;							
33063	82.41	2.28	Residential     	;							
21807	86.32	2.274	Residential     	;							
33265	76.88	2.243	Residential     	;							
21777	86.51	2.124	Residential     	;							
21939	84.55	2.074	Residential     	;							
33205	84.85	2.063	Residential     	;							
11279	98.16	2.029	Residential     	;							
33127	82.77	1.983	Residential     	;							
32897	84.02	1.969	Residential     	;							
33031	84.72	1.938	Residential     	;							
32876	84.18	1.924	Residential     	;							
33492	76.22	1.91	Residential     	;							
33234	76.97	1.882	Residential     	;							
32650	83.12	1.845	Residential     	;							
10683	101.72	1.841	Residential     	;							
10632	98.65	1.828	Residential     	;							
11310	83.02	1.822	Residential     	;							
33148	82.11	1.807	Residential     	;							
10760	91.93	1.796	Residential     	;							
32790	84.02	1.742	Residential     	;							
21697	84.87	1.718	Residential     	;							
33134	84.93	1.655	Residential     	;							
32888	85.49	1.652	Residential     	;							
33153	77.25	1.625	Residential     	;							
21897	82.69	1.583	Residential     	;							
33212	77.98	1.582	Residential     	;							
32910	84.15	1.565	Residential     	;							
33206	78.55	1.561	Residential     	;							
21861	86.43	1.551	Residential     	;							
32904	84.59	1.541	Residential     	;							
10611	97.76	1.538	Residential     	;							
33439	76.13	1.535	Residential     	;							
10759	100.13	1.515	Residential     	;							
21747	86.46	1.504	Residential     	;							
21805	86.92	1.5	Residential     	;							
33292	83.8	1.479	Residential     	;							
33033	83.23	1.478	Residential     	;							
11277	100.41	1.475	Residential     	;							
21823	86.03	1.474	Residential     	;							
33064	77.66	1.43	Residential     	;							
21969	84.5	1.426	Residential     	;							
10597	96.36	1.411	Residential     	;							
32875	85.45	1.4	Residential     	;							
32645	84.2	1.391	Residential     	;							
21884	86.63	1.39	Residential     	;							
33482	76.84	1.371	Residential     	;							
10634	100.66	1.36	Residential     	;							
10688	98.19	1.36	Residential     	;							
22002	81.07	1.357	Residential     	;							
11318	84.08	1.344	Residential     	;							
32431	78.29	1.329	Residential     	;							
32145	84.25	1.318	Residential     	;							
10751	99.86	1.306	Residential     	;							
33441	76.02	1.283	Residential     	;							
32821	83.68	1.282	Residential     	;							
33061	82.36	1.272	Residential     	;							
32533	82.57	1.268	Residential     	;							
21810	86.74	1.259	Residential     	;							
33253	84.64	1.256	Residential     	;							
21951	80.41	1.25	Residential     	;							
32920	84.94	1.239	Residential     	;							
10642	92.04	1.236	Residential     	;							
32681	84.57	1.236	Residential     	;							
10667	100.55	1.234	Residential     	;							
32718	84.29	1.201	Residential     	;							
32784	84.18	1.187	Residential     	;							
32547	82.58	1.186	Residential     	;							
32590	83.33	1.185	Residential     	;							
33250	76.68	1.182	Residential     	;							
33089	79.86	1.175	Residential     	;							
21740	86.32	1.173	Residential     	;							
21875	86.42	1.156	Residential     	;							
10622	91.05	1.144	Residential     	;							
10742	100.41	1.136	Residential     	;							
32490	82.01	1.131	Residential     	;							
32624	83.65	1.126	Residential     	;							
54249	84.71	1.121	Residential     	;							
32898	85.85	1.116	Residential     	;							
33270	84.53	1.095	Residential     	;							
33272	76.47	1.082	Residential     	;							
21484	75.69	1.073	Residential     	;							
21942	83.96	1.067	Residential     	;							
33099	82.54	1.06	Residential     	;							
54862	82.27	1.047	Residential     	;							
54877	88.26	1.04	Residential     	;							
43539	105.52	1.023	Residential     	;							
54874	86.01	1.019	Residential     	;							
32720	84.81	1.007	Residential     	;							
21467	72.6	0.997	Residential     	;							
32793	84.68	0.99	Residential     	;							
33030	84.62	0.987	Residential     	;							
32522	82.34	0.985	Residential     	;							
33203	84.47	0.979	Residential     	;							
33351	76.19	0.979	Residential     	;							
32648	83.93	0.977	Residential     	;							
33093	86.26	0.973	Residential     	;							
33115	85.73	0.946	Residential     	;							
21325	73.26	0.942	Residential     	;							
11209	92.78	0.934	Residential     	;							
32958	84.64	0.933	Residential     	;							
22003	81.6	0.93	Residential     	;							
10717	98.75	0.925	Residential     	;							
21822	86.49	0.924	Residential     	;							
54885	86.96	0.921	Residential     	;							
32988	82.85	0.911	Residential     	;							
32641	83.5	0.903	Residential     	;							
32607	79.43	0.902	Residential     	;							
54870	90.25	0.9	Residential     	;							
33251	84.86	0.897	Residential     	;							
54897	87.31	0.897	Residential     	;							
10777	96.68	0.89	Residential     	;							
32552	83.2	0.89	Residential     	;							
33231	77.94	0.889	Residential     	;							
33389	80.62	0.881	Residential     	;							
21404	74.12	0.877	Residential     	;							
32973	84.13	0.874	Residential     	;							
32798	85.57	0.87	Residential     	;							
11289	94.59	0.862	Residential     	;							
32914	86.29	0.858	Residential     	;							
33491	75.86	0.856	Residential     	;							
10682	98.44	0.851	Residential     	;							
21435	82.82	0.851	Residential     	;							
22000	96.64	0.85	Residential     	;							
21448	72.22	0.848	Residential     	;							
33201	85.07	0.835	Residential     	;							
54863	90.8	0.831	Residential     	;							
21329	73.5	0.83	Residential     	;							
54700	86.76	0.827	Residential     	;							
21431	73.74	0.826	Residential     	;							
21465	74.17	0.826	Residential     	;							
32625	82.81	0.826	Residential     	;							
32319	84.2	0.821	Residential     	;							
33057	76.63	0.821	Residential     	;							
54859	82.81	0.816	Residential     	;							
10904	98.74	0.815	Residential     	;							
11306	98.44	0.815	Residential     	;							
21413	74.02	0.815	Residential     	;							
33150	85.45	0.814	Residential     	;							
33195	84.39	0.807	Residential     	;							
21761	86.57	0.804	Residential     	;							
33252	77.32	0.804	Residential     	;							
33200	82.24	0.8	Residential     	;							
54693	86.39	0.795	Residential     	;							
21819	86.37	0.782	Residential     	;							
21490	77.05	0.779	Residential     	;							
21585	88.59	0.774	Residential     	;							
10844	100.77	0.772	Residential     	;							
21360	73.97	0.771	Residential     	;							
21586	85.17	0.768	Residential     	;							
32575	80.27	0.768	Residential     	;							
32491	82.93	0.767	Residential     	;							
10703	100.21	0.766	Residential     	;							
21731	86.48	0.765	Residential     	;							
54883	88.37	0.765	Residential     	;							
54898	87.46	0.765	Residential     	;							
21449	73.23	0.761	Residential     	;							
11269	99.69	0.754	Residential     	;							
21641	84.89	0.754	Residential     	;							
54185	82.78	0.754	Residential     	;							
33209	84.27	0.751	Residential     	;							
32587	82.09	0.747	Residential     	;							
32532	82.5	0.746	Residential     	;							
33490	76.71	0.746	Residential     	;							
32623	82.85	0.737	Residential     	;							
32921	85.74	0.737	Residential     	;							
54886	88.1	0.734	Residential     	;							
10772	100	0.714	Residential     	;							
21359	72.69	0.712	Residential     	;							
21882	86.04	0.712	Residential     	;							
10762	98.93	0.709	Residential     	;							
21326	74.56	0.709	Residential     	;							
21660	84.74	0.708	Residential     	;							
21583	80.72	0.704	Residential     	;							
21650	78.8	0.704	Residential     	;							
11239	100.26	0.702	Residential     	;							
43929	94.96	0.701	Residential     	;							
33050	86.3	0.7	Residential     	;							
33493	74.29	0.7	Residential     	;							
21714	87.69	0.696	Residential     	;							
32549	82.4	0.693	Residential     	;							
10735	95.76	0.69	Residential     	;							
54890	86.58	0.69	Residential     	;							
54234	84.09	0.681	Residential     	;							
54288	84.15	0.681	Residential     	;							
33266	84.06	0.679	Residential     	;							
32639	83.37	0.675	Residential     	;							
33046	86.5	0.674	Residential     	;							
32712	85.51	0.673	Residential     	;							
10817	100.52	0.672	Residential     	;							
21658	78.55	0.671	Residential     	;							
32909	83.81	0.669	Residential     	;							
11254	98.18	0.668	Residential     	;							
21330	74.48	0.668	Residential     	;							
32550	82.15	0.667	Residential     	;							
32905	86.22	0.667	Residential     	;							
21352	72.24	0.666	Residential     	;							
54582	86.53	0.656	Residential     	;							
32618	82.41	0.655	Residential     	;							
11321	89.52	0.653	Residential     	;							
10746	100.86	0.651	Residential     	;							
54537	96.05	0.648	Residential     	;							
32599	80.03	0.646	Residential     	;							
21659	79.34	0.643	Residential     	;							
33245	84.8	0.64	Residential     	;							
32456	78.81	0.637	Residential     	;							
54661	86.78	0.636	Residential     	;							
54904	88.17	0.634	Residential     	;							
54256	79.05	0.632	Residential     	;							
32570	82.81	0.63	Residential     	;							
11272	81.26	0.622	Residential     	;							
54556	86.14	0.622	Residential     	;							
54901	87.55	0.622	Residential     	;							
10239	89.22	0.62	Residential     	;							
10732	95.97	0.62	Residential     	;							
21750	82.68	0.617	Residential     	;							
32524	87.14	0.612	Residential     	;							
32830	86.08	0.612	Residential     	;							
33202	84.1	0.61	Residential     	;							
21485	72.27	0.607	Residential     	;							
21890	95.27	0.603	Residential     	;							
32561	82.66	0.602	Residential     	;							
11319	85.93	0.601	Residential     	;							
21766	89.59	0.601	Residential     	;							
54663	82.66	0.601	Residential     	;							
54754	95.17	0.601	Residential     	;							
10367	99.46	0.595	Residential     	;							
33072	82.02	0.595	Residential     	;							
33483	76.58	0.595	Residential     	;							
54496	85.02	0.594	Residential     	;							
54534	86.3	0.594	Residential     	;							
21886	86.12	0.593	Residential     	;							
32433	87.51	0.593	Residential     	;							
32800	85.59	0.593	Residential     	;							
54611	86.74	0.593	Residential     	;							
54642	86.45	0.593	Residential     	;							
54803	86.4	0.593	Residential     	;							
54833	86.65	0.593	Residential     	;							
54876	90.99	0.593	Residential     	;							
54879	90.34	0.593	Residential     	;							
10375	100.57	0.592	Residential     	;							
32994	82.51	0.592	Residential     	;							
33434	82.83	0.592	Residential     	;							
21843	79.91	0.591	Residential     	;							
33207	83.07	0.591	Residential     	;							
54460	86.25	0.589	Residential     	;							
21832	80.21	0.588	Residential     	;							
33109	84.37	0.588	Residential     	;							
43780	87.4	0.588	Residential     	;							
21829	83.78	0.587	Residential     	;							
33179	80.26	0.585	Residential     	;							
21813	80.09	0.583	Residential     	;							
21885	92.22	0.583	Residential     	;							
33395	76.3	0.583	Residential     	;							
21555	85.52	0.581	Residential     	;							
32883	84.1	0.581	Residential     	;							
33254	84.57	0.581	Residential     	;							
21701	85.4	0.576	Residential     	;							
33191	84.57	0.576	Residential     	;							
21833	78.78	0.574	Residential     	;							
10810	100.51	0.573	Residential     	;							
32842	84.61	0.568	Residential     	;							
21784	83.64	0.565	Residential     	;							
21846	84.7	0.564	Residential     	;							
33438	76.43	0.564	Residential     	;							
54598	86.33	0.564	Residential     	;							
54606	86.81	0.564	Residential     	;							
54657	86.82	0.563	Residential     	;							
54884	88.23	0.563	Residential     	;							
21877	83.64	0.562	Residential     	;							
33149	82.34	0.562	Residential     	;							
54718	82.49	0.559	Residential     	;							
10910	98.66	0.553	Residential     	;							
32700	84.71	0.553	Residential     	;							
21738	76.97	0.552	Residential     	;							
54278	84.78	0.552	Residential     	;							
21910	82.77	0.548	Residential     	;							
33349	76.57	0.547	Residential     	;							
11112	99.2	0.544	Residential     	;							
21726	78.15	0.543	Residential     	;							
43894	94.25	0.543	Residential     	;							
10699	100.18	0.542	Residential     	;							
21858	80.18	0.542	Residential     	;							
32945	85.81	0.542	Residential     	;							
11194	100.99	0.539	Residential     	;							
21415	72.16	0.539	Residential     	;							
21497	76.31	0.538	Residential     	;							
21718	92.26	0.538	Residential     	;							
10652	98.2	0.537	Residential     	;							
10799	99.77	0.537	Residential     	;							
21462	77.27	0.537	Residential     	;							
21639	82.54	0.537	Residential     	;							
21709	87.44	0.537	Residential     	;							
32525	82.52	0.537	Residential     	;							
43854	92.54	0.537	Residential     	;							
54592	94.84	0.537	Residential     	;							
54670	86.19	0.537	Residential     	;							
54671	84.75	0.537	Residential     	;							
54792	86.2	0.536	Residential     	;							
32309	84.66	0.535	Residential     	;							
32520	83.99	0.535	Residential     	;							
54173	96.87	0.535	Residential     	;							
54634	86.71	0.535	Residential     	;							
54668	86.62	0.535	Residential     	;							
21786	88.69	0.534	Residential     	;							
54891	90.61	0.532	Residential     	;							
10637	101.21	0.529	Residential     	;							
21384	74.21	0.529	Residential     	;							
21734	86.72	0.529	Residential     	;							
33008	84.36	0.529	Residential     	;							
54267	84.99	0.528	Residential     	;							
54646	94.77	0.528	Residential     	;							
54725	94.26	0.528	Residential     	;							
21881	84.38	0.527	Residential     	;							
32975	83.97	0.527	Residential     	;							
33088	77.75	0.527	Residential     	;							
33023	86.29	0.526	Residential     	;							
10663	97.02	0.525	Residential     	;							
54220	81.98	0.523	Residential     	;							
54236	83.35	0.523	Residential     	;							
21394	72.99	0.522	Residential     	;							
33422	76.09	0.522	Residential     	;							
10593	92.99	0.52	Residential     	;							
21799	86.22	0.519	Residential     	;							
21893	95.25	0.519	Residential     	;							
33269	84.81	0.518	Residential     	;							
10926	84.02	0.517	Residential     	;							
54117	84.24	0.515	Residential     	;							
21559	87.86	0.513	Residential     	;							
43800	95.62	0.513	Residential     	;							
10721	98.88	0.512	Residential     	;							
10906	83.34	0.512	Residential     	;							
11226	91.73	0.511	Residential     	;							
32651	83.84	0.51	Residential     	;							
10803	101.88	0.508	Residential     	;							
33383	80.74	0.508	Residential     	;							
21424	75.38	0.507	Residential     	;							
54786	86.74	0.507	Residential     	;							
54828	85.31	0.507	Residential     	;							
10269	107.42	0.506	Residential     	;							
33263	84.31	0.506	Residential     	;							
54629	86.3	0.506	Residential     	;							
54649	86.69	0.506	Residential     	;							
54827	86.48	0.506	Residential     	;							
21471	84.91	0.505	Residential     	;							
43743	89.31	0.505	Residential     	;							
21803	83.9	0.504	Residential     	;							
32808	85.76	0.504	Residential     	;							
21723	76.38	0.503	Residential     	;							
21776	84.9	0.503	Residential     	;							
32537	82.14	0.502	Residential     	;							
32579	78.8	0.502	Residential     	;							
54801	86.83	0.502	Residential     	;							
54902	87.5	0.502	Residential     	;							
10114	102.98	0.498	Residential     	;							
54845	90.52	0.497	Residential     	;							
10599	93.69	0.496	Residential     	;							
10850	99.15	0.496	Residential     	;							
10980	99.27	0.495	Residential     	;							
21828	86.2	0.495	Residential     	;							
32586	81.98	0.495	Residential     	;							
33102	84.87	0.495	Residential     	;							
11298	98	0.494	Residential     	;							
33487	76.82	0.493	Residential     	;							
21445	74.33	0.492	Residential     	;							
33451	82.25	0.491	Residential     	;							
21762	86.98	0.49	Residential     	;							
21887	80.25	0.49	Residential     	;							
43850	92.07	0.489	Residential     	;							
10928	98.33	0.488	Residential     	;							
11004	100.02	0.488	Residential     	;							
21717	87.93	0.488	Residential     	;							
32130	81.16	0.486	Residential     	;							
10716	93.12	0.482	Residential     	;							
21565	79.73	0.482	Residential     	;							
21711	83.9	0.482	Residential     	;							
32246	84.38	0.481	Residential     	;							
32683	84.23	0.481	Residential     	;							
33186	84.77	0.481	Residential     	;							
33486	76.49	0.481	Residential     	;							
21748	84.72	0.48	Residential     	;							
21916	81.06	0.48	Residential     	;							
43790	89.26	0.479	Residential     	;							
21661	85.2	0.477	Residential     	;							
21929	81.42	0.477	Residential     	;							
54524	85.2	0.477	Residential     	;							
54560	86.02	0.477	Residential     	;							
54716	86.21	0.477	Residential     	;							
21581	78.73	0.474	Residential     	;							
32813	82.75	0.474	Residential     	;							
33387	78.03	0.474	Residential     	;							
10392	94.4	0.471	Residential     	;							
21754	79.95	0.471	Residential     	;							
21937	95.17	0.471	Residential     	;							
32872	84.06	0.471	Residential     	;							
33369	76.97	0.471	Residential     	;							
21936	80.36	0.47	Residential     	;							
32138	83.64	0.47	Residential     	;							
54867	90.59	0.47	Residential     	;							
54899	86.48	0.47	Residential     	;							
54906	88.03	0.47	Residential     	;							
54857	82.96	0.466	Residential     	;							
10358	102.76	0.465	Residential     	;							
10939	80.12	0.465	Residential     	;							
21346	73.12	0.465	Residential     	;							
21584	78.61	0.465	Residential     	;							
21903	82.73	0.465	Residential     	;							
32383	85.35	0.465	Residential     	;							
43830	92.15	0.465	Residential     	;							
10868	96.65	0.464	Residential     	;							
21707	85.56	0.464	Residential     	;							
21808	85.22	0.464	Residential     	;							
32881	84.5	0.464	Residential     	;							
43807	93.31	0.464	Residential     	;							
54344	84.73	0.464	Residential     	;							
10725	102.26	0.463	Residential     	;							
11299	78.3	0.46	Residential     	;							
32583	82.51	0.46	Residential     	;							
54548	96.53	0.46	Residential     	;							
10826	99.73	0.457	Residential     	;							
54895	86.47	0.457	Residential     	;							
10701	97.3	0.456	Residential     	;							
10866	84.82	0.456	Residential     	;							
11224	92.27	0.456	Residential     	;							
21607	85.37	0.456	Residential     	;							
32544	84.46	0.456	Residential     	;							
32643	84.05	0.454	Residential     	;							
54170	92.41	0.454	Residential     	;							
54293	79.72	0.454	Residential     	;							
33311	78.77	0.453	Residential     	;							
10794	99.83	0.452	Residential     	;							
21839	83.2	0.451	Residential     	;							
21818	78.03	0.45	Residential     	;							
21825	91.67	0.448	Residential     	;							
54559	86.57	0.447	Residential     	;							
54690	86.58	0.447	Residential     	;							
11311	98.5	0.446	Residential     	;							
32935	86.29	0.446	Residential     	;							
10724	99.81	0.445	Residential     	;							
21340	73.74	0.443	Residential     	;							
21840	80.79	0.443	Residential     	;							
32244	84.31	0.442	Residential     	;							
33443	76.15	0.441	Residential     	;							
32376	84.11	0.439	Residential     	;							
43857	93.52	0.439	Residential     	;							
21737	84.75	0.437	Residential     	;							
21403	74.22	0.436	Residential     	;							
54881	89.05	0.435	Residential     	;							
10950	97.45	0.433	Residential     	;							
11225	100.48	0.433	Residential     	;							
32480	88.1	0.433	Residential     	;							
32609	82.23	0.433	Residential     	;							
33131	85.37	0.433	Residential     	;							
33494	74.34	0.433	Residential     	;							
21772	86.83	0.432	Residential     	;							
43837	92.23	0.432	Residential     	;							
54554	94.69	0.432	Residential     	;							
32503	82.33	0.431	Residential     	;							
21901	79.02	0.43	Residential     	;							
10770	100.87	0.429	Residential     	;							
21785	77.25	0.429	Residential     	;							
21889	82.85	0.429	Residential     	;							
33346	76.15	0.429	Residential     	;							
54247	82.9	0.429	Residential     	;							
54250	79.41	0.429	Residential     	;							
54616	94.3	0.429	Residential     	;							
11015	100.41	0.427	Residential     	;							
32571	82.77	0.425	Residential     	;							
21386	74.52	0.424	Residential     	;							
32642	83.48	0.424	Residential     	;							
33335	78.11	0.424	Residential     	;							
54525	96.29	0.424	Residential     	;							
54664	95.84	0.424	Residential     	;							
10549	80.52	0.423	Residential     	;							
54434	85.2	0.423	Residential     	;							
32996	83.69	0.422	Residential     	;							
43778	92.08	0.422	Residential     	;							
21790	90.33	0.421	Residential     	;							
10918	96.02	0.418	Residential     	;							
21872	81.37	0.418	Residential     	;							
21946	82.39	0.418	Residential     	;							
54543	95.04	0.418	Residential     	;							
54781	86.59	0.418	Residential     	;							
33214	84.29	0.417	Residential     	;							
33316	77.93	0.417	Residential     	;							
32886	86.18	0.416	Residential     	;							
21385	74.06	0.415	Residential     	;							
21476	74.71	0.415	Residential     	;							
21806	93.21	0.415	Residential     	;							
32627	84.47	0.415	Residential     	;							
32747	85.75	0.415	Residential     	;							
54517	86.82	0.415	Residential     	;							
54681	86.74	0.415	Residential     	;							
54707	80.81	0.415	Residential     	;							
54842	81.8	0.415	Residential     	;							
11316	98.67	0.414	Residential     	;							
33442	82.83	0.414	Residential     	;							
54604	86.75	0.414	Residential     	;							
21836	95.65	0.412	Residential     	;							
10783	97.17	0.411	Residential     	;							
21703	76.42	0.41	Residential     	;							
10272	106.63	0.409	Residential     	;							
11314	80.71	0.409	Residential     	;							
54840	92.98	0.409	Residential     	;							
32647	84.71	0.408	Residential     	;							
32675	84.86	0.408	Residential     	;							
32978	84.44	0.408	Residential     	;							
54265	81.38	0.408	Residential     	;							
54451	88.92	0.408	Residential     	;							
21944	82.59	0.407	Residential     	;							
32870	83.4	0.407	Residential     	;							
32953	84.82	0.404	Residential     	;							
21636	79.59	0.403	Residential     	;							
54882	88.62	0.403	Residential     	;							
54903	87.23	0.403	Residential     	;							
21475	82	0.402	Residential     	;							
54878	86.17	0.402	Residential     	;							
21457	74.96	0.401	Residential     	;							
21495	75.99	0.401	Residential     	;							
21648	87.76	0.401	Residential     	;							
21926	81.37	0.401	Residential     	;							
33047	86.89	0.401	Residential     	;							
11221	91.86	0.4	Residential     	;							
21670	76.9	0.4	Residential     	;							
21746	79.88	0.4	Residential     	;							
32270	84.48	0.4	Residential     	;							
54407	84.51	0.399	Residential     	;							
21769	83.51	0.397	Residential     	;							
21782	82.82	0.397	Residential     	;							
21874	86.41	0.397	Residential     	;							
32104	82.76	0.397	Residential     	;							
33090	78.57	0.397	Residential     	;							
54887	86.78	0.397	Residential     	;							
43875	88.51	0.396	Residential     	;							
54286	79.58	0.396	Residential     	;							
21494	77.14	0.395	Residential     	;							
11080	100.24	0.394	Residential     	;							
11233	90.54	0.394	Residential     	;							
21356	74.48	0.394	Residential     	;							
21637	78.38	0.394	Residential     	;							
21895	97.31	0.394	Residential     	;							
32984	84.91	0.394	Residential     	;							
43746	88.77	0.394	Residential     	;							
11124	93.59	0.393	Residential     	;							
54308	79.76	0.393	Residential     	;							
10857	100.34	0.391	Residential     	;							
10925	96.35	0.391	Residential     	;							
33420	76.96	0.389	Residential     	;							
54683	82.26	0.388	Residential     	;							
32915	86.08	0.387	Residential     	;							
21835	79.06	0.386	Residential     	;							
54820	86.68	0.386	Residential     	;							
32401	86.39	0.385	Residential     	;							
43865	94.06	0.385	Residential     	;							
54483	86.45	0.385	Residential     	;							
54626	86.92	0.385	Residential     	;							
54697	86.86	0.385	Residential     	;							
21444	76.14	0.384	Residential     	;							
33264	84.73	0.384	Residential     	;							
54416	84.83	0.384	Residential     	;							
54644	86.19	0.384	Residential     	;							
54821	86.35	0.384	Residential     	;							
54839	85.45	0.384	Residential     	;							
10612	92.22	0.383	Residential     	;							
21816	88.22	0.383	Residential     	;							
32589	78.72	0.383	Residential     	;							
54832	86.01	0.383	Residential     	;							
21955	91.54	0.382	Residential     	;							
54576	94.33	0.382	Residential     	;							
32494	82.79	0.381	Residential     	;							
54861	90.81	0.381	Residential     	;							
43769	94.98	0.38	Residential     	;							
33410	76.65	0.379	Residential     	;							
54518	96.24	0.379	Residential     	;							
10684	96.76	0.378	Residential     	;							
32731	84.31	0.378	Residential     	;							
10796	99.84	0.376	Residential     	;							
33036	86.44	0.374	Residential     	;							
21667	79.71	0.373	Residential     	;							
21687	86.28	0.371	Residential     	;							
32985	83.14	0.371	Residential     	;							
54266	82.09	0.371	Residential     	;							
10946	97.4	0.37	Residential     	;							
33358	77.04	0.37	Residential     	;							
54269	82.42	0.37	Residential     	;							
54815	94.12	0.37	Residential     	;							
10330	102.49	0.369	Residential     	;							
10788	100.02	0.369	Residential     	;							
10792	100.18	0.369	Residential     	;							
21792	82.11	0.369	Residential     	;							
21814	95.19	0.369	Residential     	;							
32158	84.31	0.369	Residential     	;							
32516	86.8	0.369	Residential     	;							
32999	84.31	0.369	Residential     	;							
33460	76.91	0.369	Residential     	;							
54167	100.69	0.369	Residential     	;							
54436	86.53	0.369	Residential     	;							
54871	90.8	0.369	Residential     	;							
54894	88.57	0.369	Residential     	;							
33449	82.06	0.368	Residential     	;							
54608	86.66	0.368	Residential     	;							
54824	86.98	0.368	Residential     	;							
21919	82.91	0.366	Residential     	;							
32548	81.87	0.366	Residential     	;							
11320	98.59	0.365	Residential     	;							
10672	96.56	0.364	Residential     	;							
10787	99.39	0.364	Residential     	;							
10968	98.98	0.364	Residential     	;							
21922	78.36	0.364	Residential     	;							
21981	82.99	0.364	Residential     	;							
32568	80.13	0.364	Residential     	;							
32820	85.1	0.364	Residential     	;							
10797	93.15	0.363	Residential     	;							
21940	84.44	0.363	Residential     	;							
32217	84.47	0.363	Residential     	;							
43812	91.67	0.363	Residential     	;							
54222	87.39	0.363	Residential     	;							
10738	91.73	0.362	Residential     	;							
10842	100.92	0.362	Residential     	;							
10892	99.03	0.362	Residential     	;							
11003	99.6	0.362	Residential     	;							
21434	73.27	0.362	Residential     	;							
21713	88.45	0.362	Residential     	;							
21771	84.56	0.362	Residential     	;							
21863	90.16	0.362	Residential     	;							
21869	96.96	0.362	Residential     	;							
54169	87.79	0.362	Residential     	;							
54669	93.7	0.362	Residential     	;							
11011	100.26	0.361	Residential     	;							
21898	79.91	0.36	Residential     	;							
10351	102.12	0.359	Residential     	;							
10635	96.71	0.359	Residential     	;							
10940	98.79	0.359	Residential     	;							
32803	86.52	0.359	Residential     	;							
32867	84.84	0.359	Residential     	;							
33379	76.76	0.359	Residential     	;							
33401	76.98	0.359	Residential     	;							
54355	84.1	0.359	Residential     	;							
32918	80.59	0.358	Residential     	;							
11009	100.91	0.357	Residential     	;							
21358	78.02	0.357	Residential     	;							
21830	83.78	0.357	Residential     	;							
43815	91.79	0.357	Residential     	;							
54689	96.4	0.357	Residential     	;							
10197	101.49	0.356	Residential     	;							
11307	82.61	0.356	Residential     	;							
21446	76.89	0.356	Residential     	;							
33307	78.56	0.356	Residential     	;							
54329	84.4	0.356	Residential     	;							